<mxfile host="Electron" modified="2021-12-29T23:16:14.346Z" agent="5.0 (Windows NT 10.0; Win64; x64) AppleWebKit/537.36 (KHTML, like Gecko) draw.io/16.0.2 Chrome/96.0.4664.55 Electron/16.0.5 Safari/537.36" etag="QUgLdwNwzv3CPo8gQMjl" version="16.0.2" type="device"><diagram id="oj-Iyy_KfRZOWNtjrEHs" name="Houdini Dev Worflow">7L1Zt6rI0ij6a+bjPgPpeaQRxQZBxe7lDJRGEUEUAf31NyNJwNnUqlVV+9vnnDs2Za2ptJkRkdFH8MGol2pwc6/Haer58QdNedUHo33QNMMLIvoDe571nh4nSPWe8Hby6n1Ut2NxevnkxGbv4+T5d7Kv3pWnaZyfrp93HtIk8Q/5p33u7ZaWn08L0tj7tOPqhv63HYuDG3/fuz55+bHeSzMM3x0Y+qfw2Dya59j6yMVtziZTuR9dLy3fdjH9D0a9pWlef7tUqh8D+D4DRv+Do+3Ibn6S/84FbPxitXsxFP73XHTHRqFOz/N/cQwZXP5spux7CALkZ3rLj2mYJm7c7/Yq3d5Jml7RaT20M/Lz/EkQ6D7yFO065peYHPUTTwZ0oJ+H2L3fT4d6p36Km1Pu+S09+2oapzc8EIbR4D84L97jKwv/lp8QbtCuw+NW+N6nKxv89CTYdfbzA/yi0I96ijCvPwRdr0UIomU/vfj57YlOufmxm5+Kz9e5hKbC9rz2Uis9oTvSFFkAvZ5AqKGlf477fJN7+rgdfHLdO/a+3YriPt1K4OjPd8rdW+jn3+6EwO4+3067wgn3X4yZ4f5gzH84tK9XNEMjF6Av9SCaX28g7nZhav0rlEv/l3L/5yhXFOjPKOW/3OJ36VYUmS/UxLL/I3TLsdKPI/6jgX09vx3Yv4tqky3/r+ehihKxmI+eW3qZrs//ov8O1d7SR+JhmqG+EsjfImg0hQ25Hv/Ywo//xTU/ter9oPYkv4I0yd9oXGLhv88LJEkT/9Pq6Gj4G8kiGGAS+hWwiMDHBPKr86gf18k/WBRvRPA3cPx3ZOp/cfxrHPd6/6dw/KP0YXv/GMd/B63VKd90iES/tm9HOpzCj+c7guGif1H/i6K4z/TA039GEfiX5d9OCG7+rd35O+Tw52Lr79HHjwhhxP+jS76+b+HGD/Kkb+TRIR/wVR5Pub+4unjuJTKePiP6D+EFioRfffxqAZCjAvNZgtPEYik7M6YnEMZ5fLNgWOqfw6hyJD+3E3X9Kpy+dZ0zq//9+lfvz2GETKQrfD1dsFmmNGrTxN37sZXeT/kpTdDxfZrn6eXtBDk+hXAgh4WkuPdrbQsGpwogruD7yc1eqtmDvntu7n4wcv2T1qt/nZAl+UGrsiwrsuzIffSvLPdlQ1ZS+LoK4Ui4xcfRWSf5LMsTto9+hwacasuhPA5tdHigoXOnWnO9mo7QXuHIymTD11cjdNVoB9en9ZloU7vjZIPd0QTdz3i21//xNjRfh1IpD0NZW+vHrWrL9V3rETaPf+wvrHzY6JWcwPkUg/7tWxFSgpRvd9T61ZR8e96L8Vq4cI8xOtE+j5Ql3l0/4nUXpnI1XfYV8TV9DR6PW4bITrnyiD882cckPOPz9uteLvfn2jyc9XLBEHtS5FxMwWNnx9QdRAgR8dVdC9fMvdxMMRjmp8X5agxya0kxHrrXjdr0pACdxj0PyWx8SjPjkfGPm2ygh1lnOQhZr1fx/rLHT9UrOq9A+49BAQRM67fxcIj+0PppA/vTK48wrpf7lyntabGcVsWeFl4qmhvaTR2NhYXOovLJQrzfxk+9vkn9KbW78IgTLhcEaTTP650SZQfkSdyQ7Nr0m2uU51UU0DeXBm1WFwP9FUg9bwiXIMIaoD9P9Jz6XAS+wmA8xpsUb8/Mhcc5F31GoK+7kjwgM8kzHxl5prDekWPoRsvihb5Fa4uDZyYKU0ivAwNnKrYDJz3RBAOARjaOcoC+8/ZE2dJKUUbfMMzDw6lXH+DiSXtSPBDIc919+1zdCQC2CXvbwOmZDVOWkt36Vc8WP7m8TwDCxY0nM5icEBHq48ExPcRLp2cq7yCXrRc8aP8MAjLj7elWf+GfsxbKk61Vf0+3whLwaOq2Jc77IbkL2uDZ5+sYZl3cx3DTKOXhDvTusgPKQGiAcSajJ1pOzkqfox+MFAjT6EKmSNuP9omnkIznFLeD5QaT1JI4L0XcTQ8TfgrQvE/UQhJ9vK8UXg7cB0E8kOLdGsCEFgfcnlfD1Fr5m5g7orsHaFUo+c4kz5NO4/YhEU0ezOqLdjTM1QfIZzsNgMOf/LIQr+MT3Dje0nCI4xipPrdITRjLFjELgIl8NGD2+wuHZq+cudny2NFCsihjeJy4PZGdzIrQtkTb7Wme1n4FBrAS6ydZEQcHTtvFGo7MNAGgj6iEgVsP2msE/vWCI5frFiDC5IwJFIEWRtINhQ0ZDyj4tTkaZASXjh73SwIVWmRbqAzWFuA52SRAa9w8/ah5gwYkAkeOMVk9XN5hFiBP7pELdk1syvJUPi6I81xVadZQpoBP1s+Y5xHyO0TtkOjzk4yzmJHBHV4MgeJOJseEOTkWnskxzsvasfSyPQwgybZnwIKAb4Skisk7s+VVVi2yCu0OASlMwNrAmMVFgYlnuiVg9BwCMabDncR132P6VX8Rxw8RMMI8MnjidT/fwt5kFgVDWLjKeF3Aowd6jhhLWAuL9jaiTFZjLHfjYi+8WU8qFB8AX3EtpQQs5Rjonc5faCgK/0I6iTLLDMbfDOJZdKM3BeL/Z8Q2N2d1llyl8GdB2D2qeb5UDtud926agkFgLlXgoNYf9qg9BpidbJxV+QuJayUVkoElqAX4NKMWuDKWvFhyfpep79vb+SycbwEZyUQnGHQC9l0nGMl/RSf4v22bIA3CVhFzO6yiLW3aGvrniKf7C0gpiBuy8hKxJAWx6MtSdeLRfIR0g7GBwd7/rUd/wuwwF/xqgiQsfUQay1S8D5HipHubVc+CczX7y30Nd3AMFaTA3Ie0GW0P6JrXbME99gmNFC7lqUvB5hUsKWn6/cF2n8xNQVJt6qIZ7Db32+Tp3o6srzFIEAPa2UX/CPIQqUvRxV3H10zfrVeXEGRwjC9HZL8q9z6TcxRSVSQxRjLckpByVM/pgvQmoGmkYaQUnN/RjKygiR1kJNASxUUKE/AQpCuhf1Ug+4CGdQbLu+aL+pnGekPM+bDan9OoZrQKgjtwTKTuwdmiJpfFGj010ebn3WALQt56McBAMU94jhGK4HSkRQYS0fCQqgOzFZHauXvTeo2xGoYKmvB5SJmafQgCRvJfJU/4Vb4jsp6dr8mKlZaY51Vjwn15Or9hWQdCDpEGyEQx6hPgyDkWrpSnOSKScI/ggMTx66PVCICOLGmyoOCBFAIqO3mKhca8sTIQyTU0hwfGrNL6sQUv5sy85dOjDRmxu2w4rFGfWB9Pjx1zMpftd6uTOvdMAF6JtFuAHbdwsNzd9Xw4u9i/sP5Sa4oiUGo3BwpNGp6OqNA69cyl4+DR6oiYUhnoRDZvLh0FfD2g5MRIZARMr+GT8YRwRI/akIlndDvMtIPHnSO6ENsL27HzjZi+ZU8API9oEu43qMR9PaesgXUzdljF8GC0NGYaUu+9GR70qjpsCO1m6DIFCN7VXkL7/GhNxkdP72Ts+YzMonLb05DIfcMNOb6PIiB7WuSlQALkEfxQBwvmKgZGVYjosbc/oI8XqDVwr/QyOu0wF95/XfTC7HU3rXYc/ka5kV+7VltDeuS9Hd320FGG18B2TiYpPWYFrJ4zMwGqENZn1sJU7QFG7oIK+v0TKfHFH9AEUS7RGgHY8IgHFAoyMPwM+N407Lgd1taYQ5EQVD9nO4LTVt+mw2c7VCMns8oMovDQJdMAVCliQtd3YQyQ7XHBxpL6c6x9DObp7hs1IHPkA5sKoNwqyI4EjCNjFYAjLvsVPA392iB225PuwExORmioeK4wTiF5JGSJSS+7HXmjs5pqt+QKsjPoE12H0zMYM/DgfI+VmuMdoFUi/h18gWtND8M5BeSNlJJNQ+0SYu8AacSFAVw9xNLgOYgFwloDG0cC23J4wEuzo9Mb1nnw18xsxv1sxh13ar/SKoWIjpMa1MJ6X3+RbvsB8D+02IFG+SyDsyXERCZvYz+PVIDu876HMXEzbCuALWJJpy3WpXeDOcgIurrvLWm9imFG6Dto6gwHZskdqy4dM5OuZrPSOpt0+ySQZeat+qc8YzKpvUZOE/yAwD1IRzCUcl8AnoXxtrYf9NnTg4tGCwdGVfUXfbiCy+8w1pTdw5Sl4YC3wJaCS7doYQL0kcgMxHi0APT4yZXHd33eH1Mkzq+dfQlOBWVDFqBUWsWX8dNprx3/MWgvOywbTd2EdQwHFmCYY0/GcAJ+Af40q81bRMsTTLxIaH+Af2FEhMbgIQGthb1lBeePWqtFXzxncKcdfbygP080p0JEpAg4a+RbMXmCcYDo0Ot4jTS3NvUKBQtg0HC9dhXQTidt+qv2Mp9qjlNkWtLTCrDdlLxq/4HxsjDrewFclj0F9HjRkl+gtwQBuetR14C7srHTPuXsk1v3DgUQJIfIDK5BKIEDnL8BXQRWvY8QuMLGGLL3tc7oE069S/ujw0tjz0h3sz3q9Ydf5/FoJMMFXEBY/0D/9wXY2y9MIJ/nPgHUcRJPrGO19p0ce0SOs9d1Ox9zTYjgecNYg7vZ2M80KFd4TfkqXnjIJpKmyJI+p+3wPsBibL/GWkYQ/gyaJ9F241FKp4028Vp+nVM5I8c6W5KbtiPUV2SEAfWqZ8xwYNu0Vi/BVSP42eMP2HodLjAS7hmogK0qqwAiInhM4RbAjzksOgyML2TtgWtBKfft/fnJ60Zw1bnCEKKnVjOvRor/al6tjcx2plvQJxNkpNb4B5yRea0Iw+GqjobMMof1lLp3WB3c5UBuu+4ZwHVE4F8Fu0PYet3ai8RanDc2ftjZsRQMJsB68v1E1MwrtyDDcrWWCulfzIzwIImbW1/mxXbag2I1Xq1b+gLyFAPtCRjZZhrQbjQKAQZiNMGY60m+cEf2ibmtjVJQqN80kzdLvLOJJM3CFnDyOhB83ZOEQIE5Eg/Nm/9i2RyzJXKMabyfxx7BvwgaYfuEbc8HiOR38KsivTaDGSvxvQcUQHs0rCNr0xPvAlL1uKXdh8Epw0oMvltURFPBEl9scKOU3bKCNQUDA+/HVSJODiWQsTYqtv5Z/tmtGPrS8Kj7XhID7BC/a0/pkfRZP7KoR5LTYoJ9Z7NEKvb8ztuv6XntHkBWbPQHw+w2C7vfyjcK6uAvKB2dLjrq64H9VQiShwm9nhCeWHEtpSIqLNBVZQYz5bKdC3yQfgM8G3TzPe0f+u/HZFV8TH/l1/g/uH0apyVaJXi0FJkFcsBmNLYPwC3Sl0PwGoAigueCNara0rZ/vPXbVhud+How2G0cs5HRWrdkq0SfDkeiPG4vIGY8xHrIBjoz9sOo08e/Y/b/r25KLQb+HbfCWqrSudP+yQaumvqbiyMN1AwZPtnGQ/qSWzkrffHmgfjTcc2dlSyDWT1Ix2q4uGtyOVqDK8TbD6r7zkZmiOJ0T/xb2wCZaQ4LtiOdI4sYGNqJfUxoiEAVYPVT2FeGfVQ/O8wglgQ0OY0U0A5pAXtpi1shtGauOFFL4DYhO9NeyBbpHzH2ykEd4PwTMBy36/pbjCDiPMEE29eeH1E7spjHT5FiAMwLwYqIC8bEMYWRatPUvD8fUSCeLnI51Wp/2R3/C3aerBrIogumr2lVCj6Ti8Md7RUizP+j9SBw48UZfkI40JtFKT9F+v72D7zBNURgQ+dcjBxh7BX5WshIN8xS9zzmscTUuAGcCumxv4DmC747EE8Iq/XhGOmqIMX2a7AIbshendUxk5sOjjofOI+aOkjLnyDdzzzMmFwIFPQVUAmh2I86egmybxoZIGsR/Il7rY7CSsjOqvoNvr5Np4/ubePI3BACpWukrrCSVqvl2JnX+miUwG+/ghwkEqYcJ62Bvo9wJEYOt8DxNJsysTBOdp9mW9wY4MvS3iGqDJLQRQVIve/QEK7RQ3gIRY1kvUSTb61lRGlAG9gzAZpniN0WHIJuD+59ctGe6TdcwVXqFE2R0cAV14nDdjpJa3kq2ak98IMFg3QuwGPKau2cBbDyYdZjyCroZl1H/2C9gXJ75fCcBT8jpp8HTlJNgrGjX8PR81CICBWbj88+AREhGZQxBJbaUCcBzgnSZLyazCsI0debg9ZI/W2C1jx3qYlAtLrFij52pxqEq8YOaGNKWSf2D1Fjj1adz25ZtpcjG41oa5gpBDUNFm8waOncZ3wcp9wXtZmqRBfBkhDhwtxI7PiT50ZBSwXugBhY0DyggOjywlsi7Sg8oiVDESSjU+V3CQuMzcKkC+ZDp8XVn+ek8VKajR3Q2Q+tlzXvPCT6vdOcizYMp7y6+KySNfo019FFFBIvhBmlQMiIDwFpNV4nRPKg10LmxFcqb/CPmIUloXkCFoCHizkSNBvAsWOAjHhfxrBk5DGSRpX2FItx619o9PF9E9ukGvTvFsT7SR8qcqy1NnrTzqZLOtzLzTyPK6KTgyrc2By9DtIX5s3Y2BMiQdwVrkIDBcueUcqD9SPFE58EZHfUd4D0Bct8HXr0DK1vhUZr5htvfsc/9igl4IkgdB8EldCMvEdouvPzttjfLwl2xXXZ3o4WCbyyJrjHGI2N0llgGtaOaVEULamwHrA7z4bkCRZ28Epomb5R9p9T+0fNMHtzxMR0LKdrB/xXbRTYm1xbEn7r/23sgAdhZ9J50uK9m9ub52bXeHykgqwBGARxKnUej/0Su3CY1ZgD2t4EHtD2HXwBGLl8iVnymcWm42GolA0l/5K6SfDjHV7gkXvsEwGyKRhwUKWY4NOvMOCRwJ4ExEnsDymxpdGEzNIgLk4pbmDgvprkkknHF1cVQfCBItRE3+l2Oc/2M7gfnVtAleCqBZmbZjhNJRk9wbML3tngt2gaB1XgJKSyfLT+0Xd5C8E1gCzSVMQYKUkjPPEIaYlNChW6w7yLTNRC2UwI8jqv705tKL71A31ARk2HZAIwLiZeBymdkqOngUY8f8sAx+0nJxZGNTimv/Rkf6VrhMjak4Ad28Cr0B8WMURLQmow6HjA1eonEaFO5p+hDZNAgrFv4qlbCSzxTRc9qq8sxo33x7i1VE9m0vq+OTNvrzn2yE6/32TiUGzL0MYPnHWEKA/WEPZyi2hCMFqix32aazN/gIl0c2nsTMAOVV1AzBqgZ59HOCrhxLBeWKT2F40vHe1afKEA8FWgP0h7ol8Qk4ggi2kqk6UiRJ0Yr6efRY1nVm0ov8V41ImzZEOAIz6JN0W6NR72oC/UQkGZHDDPMhaYUIg8Z30DcngU62zAaWhM4VcogKUAFxYuU0s5DEOkBMEAmuwwpBbAHEmsroYDMU9WyAqoRzA8ssFHnUnWA03bwzZcgDXTZ5egQ8h43Qi6cNzExVq6n7Ya33tUrMjIpOmwao/ra+ylZSTsV64Dc5jPxRxOPTOFHqFSEC/AAZDFht2+yAxpYYFoGecbeVhd4E9LnFp1BS8SfAnTGaAQMhmLN2jUsSqk4IOa3VgoYFvCtBiPCSSkJ6kJQEFvBjfs5DSclbGNTJevX1fATiWeOHbXOlQVtomwug3xML0ZGeaJseDuz/sLSF4SNsBZlcEWO+0um6R+glJkQiEiJvwW3ewpNhmXT/s4Sr+KwOXEXzq/0Y0L8BH2EyyQOQiQI4u/lhGIIjDssVQnEBKxpQ0aGBIWnUCrP2BCXdtfXZyiXQ2tHHjLqhJUMmSptNq4bhMPw8dg2vMSu+WPtAaSlvVOXP0Ty0wkrcGnX1KmFojINsXcgz+Bfi+6LCgIsLyXYDMAeHXyGP4J8IX73DlMMEdjDUsJ9HqruQ/hOCwyqmEcYHSiP5gPBk9sJd6IEL0H77DoeTcSypBuXUyji3g0+ZnSpdGC4rXQUEJ3ZQORF4EI0xdriNQLAQiKNSO4KXfaxYWIFDW4CzLAASJsNjlhraAN5ernNdxKZ+c2uc+oiTCcYkKePG0QuOCYBkDm6q4B5/T8jDMr5+crIAacMDUtJlce7kXntz0mkJGPBFbY5WrxjhQ08ZddE587jX/QjNpI0Msmcw/1xgNfNh74TiuKCCFxXkko5Sla8AdGpgCt8GqYwA7ESTVMOhHchat4wnCRhIUVdGxyYdm4DaUpkzV5TqST5wjP1hZHT3rANZgUNHJBkGH1q8eTHUECIKxdNzxmpF2gDqgLR1r05SeRciuaFNxWT+xWzu7V6EhN9B5Bg2Cwy5lkSTCq05Q9alnTAL9QCaT6N3J65Ta5N0+T2E7GmpwUUDccBZx3hsWgod3Tish9Nt+2R60mTklNbkCrotbHNHNMZYDhzbXJiZobWw34XiL4lHwMoA2GVirXIvnNjLxqT6Gh1UsDhe/WRGtL0mmjV90bnaylF0Ymi016NlznS5yqkFgb+xz8M4FcHXlrqYZQJ9WOj+3o+H1VERjxzy4/1mewsE6yKcCN4z0ZZ4zdF4B3qVjWNAbCDx61XsXbLv7y0fiSiMVb4OgPMrmHHf8Rrd2LzMo7N7pZS0vXNhoZNV6I7yvr0ARtmWljdb3ZmR7V2OvXJntYbJOn9ODcZHnpLetT+m/RynateR3Ejl7zQGmfYXj16oPKPMZ+/NSVAYLSDafOftTRWgs4G1L2xAjTTrpsKx1IKcS7ffqBYzCfwivScPpoc2kbaBy6rPyGz2jNinxbWe1NOspxuhszjb3vN/dlqqacAA1sQbAVNL4uVu9iWMNVk43DNolDwhpz2MeDeD+Ouylgn5u5eIUYHXVhoqipEpxQAmTshZ3P5OMHX+QfwQocS40DU9ysmhjsMW4yiFrvVSepvq+wl0Xm6nUkwHgkg0fiG87iU0221KqLYa87Q+vWZCaJvEDMdKcnwi0v4xyokLmYeB3Nkzmc+RR5ApMbLxYCUl4EGan0XmNjfYDW2Jl1XzccRRbK7/RjdNdnyzvWQ9j7tRm7QihaKmYtzwkaiDR6/88Qafw5byupcDuFewPaMly3Y6fYQttzgGXWDWrCUWYptq5zcVSvZiW4QhZ+a+TfMWO9nyG/Se1ksyhDrczPQHiHB0j0TzwHaYBdGhb6xFiWBQIWd0s8ky7nULk3iu4lIZPmVp19sOlyDa5bMjbx8mp3UqL1euK7C0SXeXHAzyLes2jeZ/aStaSFR1LzhAmOB3ARwjkTPZERcx7myDL80zn+uGnIbGa/xDPBQ69UHW565ttx5dz4fWF+wMItYSMVmMVbAeAsF7DflsF1MwWTzqwz69zO3MwmOZiwdMwAR/KpCaZ2WKAwuUlvDNkoynh8SlMVIgd/b1a/2GavO19qV94/K1Kwp9Qi4qRjRLJNt9j1nFDDR5JxFYRFDn1hxtz+7aP4f2LT3smi/QChE9MWeybgd6ixOO9EnsoBOFGHIK8UnHOKA944FDiEI1q3s64a6HLjf12FIMtyF77FkYn6/h81xw/gh1X/GOJ1L5OF9lZU8f55hu3T63hiv4vkQlFiHSvHNQz/3f67/Qe3OrfgLdv5f3jD67BOLzh0X/8zW6ehrJEgOz2h7PIJNTQuFKy8sEO+9s7+abbMb219hdxIWdYuvwrqVeIAuzzClRRsmG0wrKQJnFMH5P8t+SJ/sG0HSviug0G1kTkbHtnDpLaqhdo/JWaL83U6hywIDrzfEzyJfwASzemZ9eWjBMnCjYd0iTsD0UO68QSDPgLlJRFksnvr+OqegCZVzC3/lFf//W0OlSAHiL/kwVs+CIzio60N+PgU3cEKvvWEgH8GHL2P1w3OAFH/Qs6PuXR69bfL/TauanXrxVtwXxI3AkVwtHA+vgaXPrsRdXQnFj9z8e+DC76fKYeGOobSMkdCxEpPAGOihOjGEk/GCXQ2EhFm3cHxUxkIJFhKEZSR9Vf6fD2CLAaMSw3HQHBtiPJzvh0Un+Evqvu83wZRfc+riFbKRxtzFsdqiL21aIQfxF8JlvHRIBpxHYDD6TLgfzx3OeQfP1htv79hWtQgQWU5fx6SEQOpKQ8T8rSthoCYjy4AiEMg0mB+3n908RWIlKNTV/GO2KStZThUyoBHk9JeEC6kIe9E2HrDeX3tEq8JPI6aXbytrNv4eXct/FglQc8ERQQi7PA8Q5ULabrEVR1wHmCKkqxARCwB7Ltevq8zuRXghhQevlQXG/0tjcQGl38EeVTeFKL+RY1D+m2mv/MJGOGn/QpalQBihAOwEOt4BZoqdj+jv99WLFRLoz+g4X+A/e8zBYNGJdwhLlVWUKiH21jghdzHVPlAz+ilZE0GGIckHvYe+/4gCUo/jJ2JOT8QIeT1URe610OHrCB9jRC/qwH1W+AEQOIv6gAMMAth1a1wuU/w47N/8Sk671fCEHZSCRZJ8B82rkqAuwUwI3HOV8jO2vgY1Ed9NJ7YFikNG4dFAUcX0RXulPKz2tdAkn4gnO4fEcuiC4gHuIjKz0kBOU3tCq+ZbhNvbtYMxvJ5hMMYpJalSt1BIZZTDUZFspBqlEicYjt97i+t+c4lV/OlKazAzWMTc17wNr8//bANVqhDk3HfIyOR3uI8+yajnj0Ca4CnTx8FMdOtJviLkFyICDhMBwlSdPTR1oLhkeEc+KUCATdldnQBSrQ5ufw4QiRibjTOSfDRv5ZFuAWpz/ox00H+HiWuWH9YkEhFM4rWVsfg4rCGZyNy/VYL+L5B5kD9DZqk5JloaSX348C/EnOT0lZ0vtHNgUD/oLWVSo3vOu9cCzgKhI+yzU0oGzyg+oNvGgd84lSQzv7xxtZriCCxByAjPPWDZKQDuQj5FJ5/WGEvI0/XzGPbywU84D3JbtJK0ZKgucvHz1k1P8EfaWzg1RYWFKk0bGkT+qM81rvL7pS0Axd/BXpoUIO/KDdIsB3idfj7FP5wCYUzu8Z33eZd/FDH8hP8WW/X4o7pyJXNI+IrL/g/EhgkKZNCcGthg0gJ9kGVH8C7zUUoRQ1ce5w7wZlwOV/gcp1gCP5pGkmG4kd+8xMW/OERYJ1PFtQnOoHnIXWD5yHr888teVyiWYMeUc+8QJQl/Q7RN5V44Bxry4zf4g9NJkDnce8wcSdUJ7FNZ437ddPe7hX/zvPrD66FhZHcOKteZ21eIRaUElK53uorkTpNHoJE4c+enqRJ40ErAs4g2aK/zY1qHobugZSZL1oVSPzblfKGdv5nWMHbmyRQp5FRHkGNLINfQ0QKmn4pUhPlaePRu1cTdz2/vmGncea2dfwfkKH6fuvg9UcPbXMCnxPiQeW4tx4vJH8QKtPFN7zVnz2DQ3k2kqlwJ6Sgv+WCfP9gTnV117Buf5tT1ek/wrqX19DrOBWyXB7QbetJ/RZKQOLX3zZ1Suw7fr9ipolpfEDUp8mg2TaRqBYrXT1ai5U2nnfsdZqNtvr4CSCfqV58dEnms7anzFtMoov9NdF4H3JCcG7GmGTiINrpLkDA+egqE95gB/Lxg3RKgoYT1h9A/9O+Wrf6aPP0Pzq+JdQQ5TDf+gtm/jsk5CkaZ7TBpnF0+vhDeJFPk1b68ZbH2EVVk+8Yarma1ESLGe9nPoI+bWw7S5tA6KqJCHVRfK3JEVk1OdRdnLHfZBLloGqBlvM4F02h2eZnNfDNsoFeJQD5qQa3/kvcq9OmMFZ0ESpAOCgfea+3+pMNekPUcl8BO8f4U3ygB98a9o2+N5mVP1QVJ995GtUpa4P717X4A8oVzydntVpAF897NvG8Q9PZAufpKIH0gDAitmqXBdyLLgWcvzv3cJEFMDiNjATzKtJdhaSn/imvIpmA0Cum+D76uuGLQiGFaWojtFa478lb0dEvEKPRUrHFGf0jC6dF59/LNz59eL6JfEaTtkNGkxX3Aya69cZdu6x57l2dUKwmI2lBls2P2hjTbyLN9xnOnHM1vDyZufMMgOvuDyBnTgkRVdxzDFW3esbV+hThTMfUtX6bMyFFCPZBVPE36LTR+jh/A+rKY3nmrBP02slCpMCtMNV7GOw/amDv/k9c+Nas2uIr0vlHwwOaThPvneZ+wMd7x7VXI1D2P8eDPkjNEb6D2ND+4w0jEPvHdVYpVx9WDFcCDvScCATfw0L6Ihn+9EOscWgZ9fFX+NMTqaugHUDp1k83VsCORH8QSElTOOzk1onTBGfAftSqnZRAexV7oIS7Cu5ee0u/+UzBL6CBv/FnE/b9U/DfcoW7jNHveGr7+UR0Fyl/04uuLDneZcu1evP7mtFeuJtFtmZxXjjwH9x0I9iAXSA8RRymHhxTeArJgcXVEU1u7V/lTEgJ/R0c45x0shLRB7LBCJzeBFRt6kMfIRiyZlPWFdJzDTBLXNABlMPXlYMkCbtqiO35VUkUO50r7vRYuv89h/cnjJBv+fUH1lvTE3Uh13eWTttFAGeFAkSz6yTt5lpnu1I5zs3XFYACccT9BsX/Ob9C+PhxsGSNQedQwBp2kxWSYjswDghBoT8cMo8Agm+mY9OH6JTiCiUIhnAg+3ERdR/ztbfMEi3mfAfIAWkJ7Feg5Z1A9vvfKkh+wESbQXtrsvsosVNdN11u+bBDbWu31P4VWOWj3UwgpFD/Qfxv3StEJDzfe+38JWh/4UP9I+QM4Y5wPwK/zib+aE0P8gfibvUJpOsQSWEt0RKEVUqqGt5YacO5oJfbB+TA8g/hdEhGHI5N4Az22nuroSfoKrlM+YEL719tjmCj6TbZ/D/iotGCn42dwHmNNGn7CVWNltR1QcE9pmCvCjdfdrMBYiBVK/+I7sk+UjfzB3oSePs/ur6xpC4AOhJ/tJ7LtnsS0mo/6lARjA0JI9yZl/1oy3neOFYdFmuzp5ESIILlqOCgUt3XWUOzxNl++LJvvvHJo4G12sC6zXj9FR66VnZodk0HuEGzmq5dDmTLmZjjiOheSJbA/Kl8AjchXpAGklA3/tG5DHUJ6TRAa6T+5E8x4Q+PP8cevnzYmQbyA4qvPzqDknT45ZFe2kZPVvEORoTrO7FQAHIqcUspFnE1OOU7x8K1L31oO4aXRl3HCzovzuGtcfGVUtQmX7qrbPhNXJDTm7w48rXRlzvvY+tVgUoRTE+s1GSCuheQEjgqJq503FCuDVN8CbW+f9rg5uvMzX6uGSM6L5GrQLY9siqVh1mvfuwxwF4paJXW6AKfodz0WwbPOfrTW61wDjThXXNnBbfugkqbmCPTbhYMXp0sQvwJpy3VMcIh4GTcnCV+n+BbH7W/iJc3dYDNCSB5v8nRTbt88gYrcUjgwndWSnLlocKm2q6xNKlVSjhALGFBA9eUIoJK0XFrIt8QzYLCA+Zy8AdYuY2fhO9OKqmQxO0EOzHHS6LdvUUbF7XWgNgX/QnShJ8Rfz+ubmm4GeTDduc2HdZYtEjrSycntoBwDvq1gtHhWK68wVM7sA1WPiWn1583X8n2+a3y91fSvO0610ai+Kyprexw0q4U3Wm5betBQaxo+PGDP/11GAIsGc/EfYVK24ef1LQpv8Bh6KKpjPyEDcTu4Q6IlgkSb4kYSOwKFzIde1CzoItjWD8wMPHd+w+183DzLW0WLR9DPz7qXqeBCGk8H10lG17hJFMAUnwIQLFOgIs0Y1h3dZeMG5IeTtjggf6q3zpNZe3u1dRE/AoH33XbO9cwmCYR+4dYCTNqesuvn9Yn9ZIskzfuNC1x/ZR3fsGN6XtjJx5CYia8eUQw9X2pcKuxgXgEXI7r2eE6UdARndILqcZGU12Q78hT1azxRjeBCGmypApoXgvDJnyMQbIuEH/oJyuudRzuJJgkEXGy2nNIOapDhUzNo1pu9U3XuDAEdodOUf2hZvaX9t962QGV8OuuvqWLmpRdp8PxFkc7qtsQZ5ecjlIgcUsf9rlRBPTAPZuaTUrEOTq1SxR+c7Pl116kZTpW64oelzDLhoODHmvgsklxQbjsiWh1n+qqzHU9Ab3kE8LS31rCkhLt2fLMffxCoyDNRfXWbv9oa5jh5RngJyjrfgXv3X8/MGcOv64UupMsx7jxH/6WHfjJg0J2Cm5T48YtWo71rfNf3lYlvW6kjy2MDioHcI/4rUaeD70Jsdw5sQ+AOBS5fIVMUykMeg3BBPbyU2ICApKpSI9Lpe9Ywme8tOaRMumCBlGP5NmLC7i+4WqNgK0bjNCj07YQETnAkyZI/nzU4dz6JHhtyAeOG4M8kkjzHEgAeYChiC12ufj4XFFgf8LMV0dUV2fb/4Vl+EtvI8u1EUNltmt4WWsXfu81+YO/l1/gmkGkNZBHIkXfanJtSIYPzjSQEBHjWBbi+/WZTccW/UQTsJ7oAKQtq0zrI1193bH3E47amsSmzwKHeS/mc0AwJLLZvF7jg9iGcBVSGLE6PHuR1YkFeYHJ5IElPzyAoA8hCo5Ax+EL8Li6XRTuOl2kcr3qtDZ74qtbgT40pFI2FVO/5xf+wUPfdeNu809+qgX9jidujrMt6MOLSKKapolI9RmptnMs0ldQC3F2EdtB7y0xRNI06EiiTHeYqoPzDcZX19HW5/4J3t7WVlP4wnJteZOy3+MGHzigTNpw7BPcsSZkcZwU+rwrFR7JBA9Pf2BJh8vRf45egWBbADO0MB+c1PLpSy0LpoH1p8J+/o1+2r4N0rGr1/1j/L1Fv7q3ZTTYixq/zq+w13rzq67CLrpgmIgu7i4J4MfuShheTvqikhJvfHTYtPFNGAZGwaDVaeGqO0wP4Zk84kfs/SlnbLHX67JAeuf2uBQsYXXxfAWVpcohsQG2V7ePIfs84kj9rGoKRAvhc+ZO0cgzBTvRjLBr+9l4euQ6IoNfM/DxKT2uG0STsAAxEYK1ti/Dr7DWxfrffATfs2J+hbeuojZq+kav6opacYH1sBZ5uNMt0rj5OY5k+BSJLTNSG7RQ5Mb8+odYa2wubtWh6tgUXzK+iqXmycMdtb0Ev3/lmuHmpcIgwRz7zI6/qg31B6QZbqDGYC/Ce48cP7m+Z2bgjsptg2CC96JDIG5eRfb/0Cvgl/j6njnz17D1Q2yZbnrB+v1v9b5C49UInKbi838Qa6LacThKmmF7dmJifM52OKfVS3CdwNXFGqKocrgqHtbR7IfIJfgxvD6kMwkYUV/jbk1FLHafTGHOmHcePxHA6964MI5NM/T2TQD/cVwxHa6aGOC1mey/G1edJj9eNZai0eX7YHsa7qm/cGZ7tMN9a7mFSzCFV1eWOaRw1QqbljCfP6SR4m68OKfk7XztO1i+bnXnxLLlkW3jxW+3ZjrGxuTke2df/f8FW11H8DdsVU0psvhopOZwm2Kt5jKHeUejrfyGKT/BhtLrkFPNQIj2+uVDecN5sYCeWTgN+U8TPj6wFSbXianKq5Fj1Zfbdt3zpMZHszs1ukfXOfH/dvyY3btL3rogRD1yXBx0OYw9EUvCl4c707P+ru70fsa8rcHO2iXDVEuaxEyCpO0o9+kDNtgWKgbqMhvnzxCDt7qC4K1Xer22wAWCV9X1Mxds23We6G+ZT9d/rkX8c+xwb9jpctmPqyb70OwsQqpTDlipzTLVJxTxU9HVEAYfjAzAKfOY4XWinTFHO1+xy1YMxn5jg3fdYj5/aiYlZbvLLsaoUaq2ve3vbdCq6VMPEML3AoK19JNFRsNeAuP2PYtSr8kd63qmNH6j/2HcNN3x+UvXFWVC8i2RvdZmgtfp1bC/EHFHq6fnArbY59kKpPyE3QWHFOxRnR042C8V3/u4C5ivvnOt96wTCSJ+FZTQn7GyhjW4vwL8r1unmWPN3SbRkoL7lJ3MFG9ertZZlDapeUzccLv3jI1lE38Vm3qMt441zZWf+o58g3/c6GxvbwY86W0sWtG6y798RGsJqBCi0TkAaX/FSXYHrg/+LebiQM8ZxbriF8/cJ7jHopQEeWtF/5xIhK2Xxx6a000g06NOEehDic4/QUK3ESzU3gkRMIEkzaTRCK6fVgaM2eryZq3OphO7l320PSvYHel0JNXvYsRwbiOoDZz5ls7P5Asbd5b+ufE+0vfOQSz8Io9eKYrah6LcmuqRiM/r95MUK7JOKuz5xPF0spb/oGptXyd3OJCaE92DYfXyBvPzdgANyv894P95+8DVVLK16Un2vpYoYjPKuAPEZ6c53/pgyA6tC/e1L06l723mWsdNtk147/3FIm/VAsInTSZgRHEmPITs9hAeHI33SK0swNFJgmUYXptwURbYe3LD3TGKxxHZ/r1gllx5pxhU960HXRVl8Mn+x3skQF6BI0PPX2CNeD1AdAnDvYL1HgjSqQP1vtNLhM7tAnTVyfpHt5rfEuqkXoG7oQgCJQWLGZS6zqFgOnz3ukMcS/a1kJX3CK7iFPzH2jQZPe24Bv6ntOj/NKx+b9PWvXwrI0ExkWdBwpV16bW4hKy1IdSBn4alaMkh1PQNpvtBFVbRlp4qYTr+T/YL+O/2341sP9caiO+1Qu+f8q06gix1NmjvQprEKNABg1yP/5Zye10JDWUU6JaBOy3iJjfTuuJYxsXfdhu9wzai9tG8qx7OIoX1+G5k9xDeylt/FckbY+rOOeSNuZhXaGS3SF7VK8tB2Tp0gq5Zh9gm7L7V8A/bb/JbH7DOg/dmyf7dTiNvi/8tYbgTCFp3/2YIdjtDgFLYjs8ix7/CiJRLAmbr64blG6RrKH1A8yG5jhha5If2jvVQ7msN/yVf2E59+C2q+fJBcx85fW6o2albd5nojRb9+aKFqy0buIuLXj0z6LSA4LNw5spqGLnCpscESoHFAwicx7LIt4fLQmLD5e51Fc5aODr2KePB4XeRx1d3rGjq5tij7ptg4k7vxnEy4eRwM17mx9FiVF3vaRDRhsAwN5f2hj4WhLzn7Xaxy4QXfsRsqkVwvY4euMOVuQOvxEGrFH2Itn7fOaDNns8rtP3TfdOD/hyEga08palyY+zqlZ9ZLpIUOQnNvqYGMz9XeDMcjXBowZKOx0jxj2Uym0RzK5UD9RDKN3aqR3dm9rq4mwlkbD0uWsXdIyMyqNkc6dUhNch66nU1rjb9Q1Xp6smShOPM40q/6IknfnOqNZuHULh0LgQC9PwujIOF66of2Czxe9LN5QuzABPafe1fw/TwGvYPh9WIted6IqsDhdcHHnUxLrNkeX0Wj8fj/mD28ytFlevTczW6SrN4PNqMTWOlng9GudQm2lRxB1vn2e/L0+NczmW7PM5Dky0m92UhZga8kzdU2PlKp07uJNXlBbw6UQk47yoka6l6eLzl7TPSi6UYI6F8e4rpeHD07vTOzMXeReRVpjTusmLYl+NDe51m075tlv2BkvY3ou9TgTsY0Jy9YZhez99DT/dpsQI123FjZ3nZ7bwjGqd26Z+VuXoane00nIWDxy5CtkSfmg2BPPxUGp6lq8cETOnfMj6c7U1afATBcj7n0ODy20GVQ0mjUtBL59BE+jiTp/bIGLr9fnJ7ciPTcgENPD82qExy+JVrzV+D1c4LBW06mo4MH40ALRQB0ctDeaqGeZQstCoUk1kLwbrnbXJ6E1Up+Mg4Yd9bIXTdJyvryNHz0VTtqwfV4G6VfA5nxaJi5s5YWXnb9ejkQO7XVdJT/XR3TslzsA0Mw1if5d7YlEpTl/X+xgevx2YN/qN9JEH831I3rxfDMFO0jkiCgLJaskHA6cvQXTw95WWtx2J8hkay45Mp8r7Blk4/9Gm5KIrjCfIA51vB3BWPHRBt7r0CS9zEfechOktVe1kzATJv9wV929yWPS8IAkeVlbPshPJZjmSZkhU7LNLzZabczKnci5XtxR3o2kR/GqNNuB/d7UUxFsH+PA9FtlhYrDnwxwsqXzq5uVzRdyeL13e1EqYn/WzJmu5if8mhbzhzj7vcK2abYwsg+CDRYvLhCvMiHGj5Jhu9+/m10LYrSQs8nDLKUNOBnj70pdMzd9CGKA3T030Zia4apZR5dy9X1WN8ZmPeDTNieBGUx/6Jfvb9go5sDnuusxE4LoaMdgzpwWNjJa/czPK59xwODzNjbY/5acSkrBGqJr+Or7s8YV7Pp/9gmOFksrwF+70dhNJJ9CXLQXopXxzOJK9lP7+UW0NXofX7NnZvy93uujLicWWPx+LjebJf2kU5DSjbsvvnsZMac1jwRmaAk1Jhlb5eor9QeK5ccNEIzywExqceMf/Iod9GDm/jdmlIkYrSsSZLd1YQhFD2Fd2l+tO8NESRUc5JKGvn8AxzRVjG/WJecT/VR4e5XUwk7VYG1rL0l9Kj2sILKgHs1uv1knycqXC7zUvWt8xwUMr6WI75SeVMfP/xyCsELNwPc8lv5pyark7j+7QEg7yaOfJdthZ6Pzr0OZsCg5k2p/EpG3l9Y07jDKQNb1mce61mOyaG0NAO3hixW+vHrdfb7wVmVRCXVHA8qEfFfjDWJTJSm5UPITzkRVr2bpkT7/pBctmWA1WIZjNuYd+PTqSsi2IRquEZvC6nzLhnrAzXHcE2nYaT0tdeOaTOVGhVJo4DcF2zr1NCrSNnkDIDcZGt3Osu4Cfr6MDH/c1xqeN3SFuwirTKN4TdfuJqkAcE5Lx/MJuCipaBn5mPcruderGinXeaYj+VKWsfkrCiStnawvOFiWWNoV82y6Y3bnZlHup1F0+e4/7OELaOHaqsZajmKbA5W+YFRx1GgZAf8gkzXAsyZ/dFJJM28oi1LIO925U/QzsPqb6V19EqpGR5hJbbWakMM0QLbjBZy6vQKV8DeAWvUg2GYyP1k4e/36jChtrys+gIUbvhMl8/BoL3yCZDcLoq4sBbTNWFqzqGLScDpS8OpudQEZp0jvoPT4t8lt2W+SjLV4eXNpwejcX8uraCuxRPjvtLOczih3y5uGF+XKV8qLn7reYtDolc9cxTf7AMRvuRNhIMxuZ5zQ2NqbwM1456lpN5Wg5YhVJf8lHZnbZaWk1ktxosTjLG4gnBSeELf+VtVnWxH+5gKgiTqaS9GMrR6HQczKInTrW5z5HGt1D8w/0cC0peFJq+yaT1Y6dEl5E4BYE33G4oUx7EpqNVy5W8nvfsXplRdDlILmXGeXqkjBNwteOGPTa4rui5HFRLhbLnfYsRnGQgm/ZgG8vC9FJG0yRUzyN7Nz0dxflcH1IPk3mc4J3sGTXUKkGUsvVmk0NHex1x65w1eH3sIAlyNrjxXjs44gCtEmHi0L69zm88vYioTZg/Bcws0sUZNPrYD7TSe4GfbC1bj5m89W+8GgWcrYrBUXTsUlOf6sS5x4U9F9ThCXGEIBxyj8d8slXOIW0vp0l5OphhYTz5/aUyRDs8yaww3AssSNmscWsps/EEO+kFGrjDeKPyG7nsn0R1JCtTX1ol6qlPqdYjllar9cpcOow0OngVeFdPnk9NtQlkZTk5IqInq6nbTE0Hl+gBywli8clEUkHPTilKTg+RnI71/mGqq9v+fhZJhnieoRMH2f5yTWkk+HlpbwrCLU72kEm6PCA9LbJnL+v5UNdqnzsjS0CrUhbEqHPigqKoprFz6/ns7ri8r2zfWul991jIjLuR5fUw7M9Wdv+eeJ5cXSf+8rbFnuVeXz3r3MSx3UiLjpFZaMuRo459Nypem75eczPa26/zy2afX6iA2SAR6hWMkDN72Un7w3A5VQZn7pZG4VxdyENcF3tzqbxHhxRzdxE6ReUi76Uns90cJrJKT0ILqdhTYXMGj67ipJa4HdlDVp/bynKaqiuuNF6HcofLsG15kolDZs5uZnFFe5PwwA9ljprFdDnbVViMvEr1bohWX1wbW+UpKPaBuqV6P92u5tm2p5P/V+k2nsP+rDSqaM4OE5/Jb+7jwiyvZ9IHSnGKQIrXTjxZhLY8X+iXeblh1a1cLsttPID2co9BsZkU6+lgCTpJGsvg1j3bxmW5STc0k8mT7UG+Cbu53+MfzyLc2QGvP5fXk8Ey8lUt1HLU03Lu2V86ZnpebGj2bHJbr8zGZ3e0psxsVt3n7kzqQ/gI6r2VytckPE/meZJ17ulY7gGWs+3sHGTjsNwx9W2HGsrZwHTc0eBsPjX7YuS+c1Qvo+futLgY44MiPxb5ME1pXzeZQOOQVXO5ZjvTlfxH4AezWb0MDru9tbuOK2OxmNmX0q2W163b31UGdAY7wYso57Pp/DEN1jtXklPl4UykLWUfxXtVsPvI82Dp6E6xPgz6o1fYEw+CPNdsZby872ZyYZXe08nG/FHLswUz3AWcpC6dw8SwQDSPntHNY5f80B0v7ojDrigE+Y2k+/sxOBQZeh32+Ov8Cgq9vJouHEEOzXnB8f60LLlsvBpRc0GT4zlzFpObOz6l195EEFg2yS0r2DiImB6IuG3nOtYCeykP1Jl63w1jM0LYHka93srnPAltzFPaFKJYvuSNke/EYD6U75tbeIN1LHMvVi9yaQgsCfcASQ+IT+QzcVZECbK1F8ktN+/aUT7uZkpmbLduz5UpwbpsOX29m9nJRdZLZoRRWpXiipN1Rd7y9uEkj/eMdxxVU+MZLOVQtAyRvla9Ic1l5X2fTodIDlaqH0OCp6JtS5ov5kKqO4iy12lpU+FgMs2zibKf3MarCaj1Llqs+x0zG2rHqrjxjysrjShvtt4O6UgXtogBFb3jfs09tsmoElXRq3J2NFuxlBlvEblKD/mGjC9QCSj7NMU4eDwspDYb6WGRrmxcPgJs2p1WcgQrNJ5se9s476nLnTM8746bZZI98vtRlY0VEnJTOVhyEGrH3bkSMV+Pdto1H0yd12TA8saIYpTxLuQWeZBtX8++o/SHpRnZ1H7I3G57z3+Aafp4MFvtLptleEm1dL0z5QsSbK+TD80y+9odO50tyi8YcD3ggJWZ0pfMNreP0mJ3am4z3mtfhMFJUTUGCL+ixhstfzjWkxse2eEz5S+3wfV+PN5AH/dOLkVdL48KslkT+hk+ZzKLa8e0XjQaL4fmOX1OIIxllvzBFl8TZCItVhpHHanZtWcet2tdkDhksFOB4PHSo4yp9IpIEGCrMGopz6/nfhTfl6w1mUygjAYWxGww1FdZLoWgZfpQVMPD/I+lDHFVSdZenBwosXEAA2PH28PFZOclspZuev1+r38L49mZqjYnG0nCgZ5RiiiNnuJodlUZ5SGcqvNosYDMYcUcnKTpIHkctCIFL4HqqkHBMP4WSdfQ8I357W4ykrdmr2Y07w0PlO2+1umUum04wwjT8dEZb+Kdg0dVvV4iFR+1+Z0ReGlQDpbb6evoq1NZRpIRqeLzDRN4nvtwFo/V8jjSUgkZcYq1DXB6HIdD4Lm0Wno72rbUSk5CS1jni8yduKFLR2k6nE7D1Q7W4s6LlzAf8dVnvDky2lN5sH4Ghw22VOwj0ncOdfQUGQs+V6zCZW8qWScW680TehVHzvqyTLWtSQ+OI3UwskbxxDw/dyOO4j0rB/qWJM83N6AnMIXICGO6fBoRorWxNmSO+AU6xVNS081pwtq2IwG9UHmqF9Y5h+oNxXLlsXVS1SK4YrsspjZIZTVLLXnJWaIa6V6kPCdbjU5+bAwmaDIadX+O+n3dpiRntnvN+31TT1ZqXorLF52/lieKvS7i4apn6GYxH18huK5ES2SJOtcsXl45sF2UxyVxoRaLfiBWfztr58mVPw9o62GcD5MScaq+Ka5Xu5vnJsDNlRzHx2xnTg/7fd+CVVqamedpxsyQLutyn6uItvierTmefnvmp1EoPvUQqayl+DyVt6pMM9vK6Cy8jrarqb7C5TCObSgH81QgVVGnnofIXUGjNKW/9vU5nd+HkchuGc01eloVDpZXYZg8toPbmMrmXDAMxctlrpxWIW7qV02QFRZNoSmQ4u52HL9zVlDWvDpsZi8K6aeVs+PuSzONjS03h6h8Mt5vSDqkPp2+dk4gqceyx3qlhYuFpevMyIFRHv31TB5SxVPIV+UxM/vzM/3qT9OBfXVW4dQ2tvqzT2mjbKtcnIu8mAevqD9jXqxXjNNbCfHg+2SQ6ZNXGlVVnw2Xd925gmWasOttcdef6wsLr5vm1M3otFQlxx4pAYwe0hSUxXyOX+ouodWDfpY6JfvhwJuPxmekGollNtDXpic/ZbmCuGK44ouAjY+XwXoeUJPjM5Mr0JZidklveiQbWvGp0zJU5/tFkK/YbLGwpv51uLrG2TSkLoW3D6fZJVUk/aDSxmsuPTJ7dp/cNdPOToY8m22XMje1nc1ylOn6iFLmUupSfvw0BgvH0G+5MZ3ziUcPJnx6c/xZud3fdvLNzA76xtfsnbbAYUJwBT/NeY4zrpE0ggD5pcjGtimZ/shdhdU1jEM+X1yv4yxz09U66/VMdXRe9na+ZB1vLgjdCrGLYgKrNq5kpGk+kKEc9iN6/DyMkEEZyEObD63RYKsfrvepaSFIBKnp2Rw97iPNaMwN/GkljO+L9an0+AGVls6pUvuJrMhq9EQExkyXZrRxjDN9q3i7T/Hq4rRESvE68Yvh+XVDywTIxQsCiTkHTOEsrqo5t41QhvfejhWWHw+GQZY7OKs9ngiiN1te76XxCOQnrEXFu97tlena5VFMkCpFP8Hy0Le7rdADd57tzMrVgXa0IZsq85SXDXoRR4PJQb4+LxGrcJRghD33WE34yzqK4iLtH41Qu16U+0FLqp1TOpsXPZuN7LM7KXZo/NlqEUmI35Y4mThZSaLorJbU9BDN0ji9gUK3kNd6Fdx2dx6WlO3rdjGQC25051RkOSgcNoaP4kMS5/p2KFflObw/qMGi1J7e8rzztExm42u4K+PyZvR57Tg1Q3Uisnxy1LUwnlYe14vsgzvmhnd+up8uz4bROzLishwPjnmZT6bLA99br81FdSkRH1sZwlZ0pzy8RnHVQ9SyXiXykh9DZxFlohwnWAs1NyukYuzWq7N1mFfMiNXSDLrbKgdlzor9XtjrDXcvZ3aQp9sT4v+bke8fqzJ3chskTKwPX/Z4He4OhTpSqLkdyfF0fkl2jtT3NofhIr/u+5NBOafgDQVVX+47nuBF656xuO4ia8DbtKEDq43MqEpL8S4lB/FAMcxryd3ojOXvc+1001UAL22+Dskoc2LL7lfMcGOMstmMNYxgQk382TzPwiGVjZRKfpyE10s3ZBNaLI0mIjIhwYNyzx7T2VE3Z3EmmsYrT9wleJWV52EcyIZlbXs9sZ8o1llXzpRMRZnm3+7eAHI7bmd3uNxyt5GijKMNBZ77a/K6ltzRn7HcGZmYt3W455PndukMqxAUfOUELT7j+wp8yMtgcr9Jsjm4oFUosFvFNDmaQRbM5FmVl1B4CcOpPDQk6mDc9opDo3mk5lTZ6aHCHLSZnfXUkzd7jcTxvZeNy3R+nSW8XyyWSipnSr/nJ/R22JMsp8xMf3se3ff3ob64rkxEjrRn7QdScZMeks8ckPJt+Bmi9fNgTGENb4Qk2m2crx75S5uah/CkVENFwe9P0wY9UcuW9GWuXbZhuBtI+tOXVYMTYjmWw4vtDseUFuVzm6HUzHeUPBxMkfa7cI+r51JZ3vdurl29bGjFM0RuqRaMhhrvD18BJcvmVVTE7LW5mAP09OwRzJjg8YB32aTZ4nw0hGyqMStuJD411VVUXEDlndcATge/WRiQ+pwNKXlQrOVMEhfbWLay6W0ZyokW9u3LQe153mxqc+ywOjnWenLZ9g1DXJTXy4gPoqO4c00tvw80BelTR2T5Tg3anDiqvNGQirlw7uV5qyHlDLy9Z8bNB/ESXBXn6iEtuCHTY6qeo4S5fMVZWvfn9gjui6MSg7dHub16k6WjXEd3MDGYDbdAGkuZScN73kv7W7l/zPTrs+9loXWlt3q5EDZbSgbwDUbHdbSnTdOPXrk7Ck7Tfth7MeppTJvLlVY9LyU1yEx6/izXGXV1+N2U2rx43g3iydWbbC4hRauHcqSEpnxCUo7UpCxuveBaxBfQf/v5mknmQngEXkWihHfaMdYMR/vQoFCZIl7vB9WrrywMI5Gz41XZCo58P496qr2VZzFvcO45OoCtG4c7x2MOp/1sFy5n92lhjI3bgTHv42gFWYRKVc3s7chY2FDprk2snaCfmH1M5XI6KWyQtuvd1hosFKTXusx8T3HmMqCGTwFTITU8ITP8sMluuIXKeROcJ7x69oveMlQkk0kODitTN3aUzum1Fu8Xg3ATncP93d+d7r21CUp4FN3361j2VoehkthT7Z4eEF/KH7bD+VHvcunThrJ4Te7XabIUOcTks4zZm8nydVcVRbv3q5CCl53Nhsv0rG2hJTXikNHDXBvHa1FwhyHUwSljuiglFzuSFUuJRrYCJ5qlzw7k3nKRzJbuajS3qHCBKC+I07UXbVaptF8fN6wXsuYBTCJD9G4LapuyMVIce/ed4zt8sbqALtojKVbBfn+/ums98lTpeT/kmhSO5Iu8NzNqsdRBTgm6fdOFSs8TiA1LAjtMLL5PbxXxyN+cxYiVA7XU8Ttr++phsvCvqWItsoNrLyWDepxKQ3U0usoyyjsFyHw10tD0cO8BOk+CMDdtB+lT+G2gh3BOj07pyemZqw0Il9nMGpcr5SwjfSpcqD548vrHUf8kDyej0Q5dneePB4VElMZP3Wnew6qtJs6WMJxYCc6mYaMR2rDM9QhJZrBPuI3p9QXlatmKWK4W3uY2vWd76PsgpFk+eRxsWgRi7CPy92P16tEjzr9cqem29NC97LtrDjjPhSLXgg6sJN5TwlncMsNDOErLPnhWdsdekuWbbMdPHgh0W017icFrOTo+18+krPxobskRt5W52aO3dxRTfclccmCfghzsjuHyPBqdyuKWHrxMYng5wSYY+IS3c2Xsx6PpwRnGdhYfbhUrHpLAEjiOBo90b+FqKjuhh1MrHR5Hoayu73FyueuhP+rb0+iS7aHO+IYjXUAhnOYP2Et5ZNJiGWrH3hOtqCQM5f5YrkKWvyIleHbp0TSo/M+yHJubraPfldtT5uKtv5b7to3N+rQ8LSJ5aU7VbYiM42L1Gg7A8D7ci4IvdX1z5ZaUESiX/lib3AeOvlrtnHi8KFKmfKnJPNjo0oVvGu1plKM8Aq6UlYK9o3FRFruVlzuKWmlhT5bUYXJbDdWpPnXLjLcU4e6On/pMLl2khyjHykP21XS/49dxOc7GDNCaPJXL1z5/spUB1dMTl45TIbM0hJ7lUJDF7TI0wsHLe6xm+5gLkN3uJYFxzKxC9IYUAwU/TMU5Ca6yBf6LbAnb6zELZZTxobFDfPe6LsrVcGbsQT2b2dRwUN3m51gYsPv+sNLUsRedvMzChd7WQdLtdHuCSrBbHtxyx42cABnRoEZkc33gHHXxFD40elvp0QOYr6Jsbj1BmvKrBWiFsrxc4Y6jl/I28cMjuFS8USFdhRHiYQd7kj6eMNjXdjtbH+cXHyenXg/PXiIbr8khYW/ZdnFbCAmlzGS4US+NS2opDW/TqeMV6lFRF8Mr/0gSK4l6K6TYxRv7mMrW+FGZI9UoGI+FLI+zcscR+iDzrGty8vu7/rIn2Fa8slZFLm4uIiQk9zatzGKqeaguZittr96Okq1z60JaD5ybza9N2w0QZVgJoAzS7XGttGPPR8utsMoWSalUWr4emPNs+hykDKkXE5iCGSn98RI65iisdTJTZ6BszRSpAPRosY6LLYWpzAIqEzJxKTn8XpqXtpQmHAbXKJ1JPF71k1TV1Xw3WgPDFYYDiO7ou/5AK1k2uDzSKrOechBJETWbPMOBjlj4xdVNUwz95Zkzlt6D8WAYSMQt7JkNduPsNA3Xg9vpgrsSNY3gomjZ52avfDUHr5t2VLxs7jH5vNI2RzYNIwNh4HWILa8cCyAI1sJlN4rFrcedXtrkch4L85LS5miNxLEX+VQuLE2RuYj0wOWxVXQSJvcQh9On6fDcG+faeXZ0o51s2PJsPBwyPLsYW3NL6fV6HJcf6cttcg1AA3E2/NOVJWMWSQ95a7PR6zQ4azgv2bdKhQ0cs6cut+Cb3x0H7mqQbXvz7J690sHtdZSv/mBrymqmLI+ilR9Zee6dr8jM6Per8SIfFcztyaVg/hxzR+ZkN6Iy157Or+X/R9V3bTmKRFt+zbzjhHkMvPdG8IZ3AoQkQPD1E6Gsvndmrcpe1VVZSog4Zu9jR3sF3cHVn6Acn+YZUll3Gxv8m2XOuq93+wiRIg4t34l94gBF2jGGgwgZ2UdPgcRHNIXycuiiWXJ4PJ1uOmL3XYoos9jjLjRRqq3dsV0Si6WFhjKQr1GA1Da5Ne5tVvb7a8VE+f59lrlDehd4d+Prrv/GAHwDTqvmgii+veIE9Voci8BU6/U5TxT8e5coRaeANJn0N8Wik8Hvh410XXUIb/NeQ2mN5wOkrk2zkf6UkTPj3f25S5jpuPv+XtGKEz8FqK+E7/mcVx5KASKlBbwmUHnlTEm4VsyT81HBlFpHx8Jyv1GoaAMj32KFej+ZVpHsEqQfAJ5qDDGjwhs+/Klb6ztS8vKYvRhSk07G8CNp1wFJwKycVQY907tXbqsIQCqCzEaZ8ZPJPsR38RWXeMiTe94MwFuBLxaQ1rTVc7Ftqq48y92OD8VFnxVASy2l2DA8B+g+xJifv0kgb2lXnRJlP5/WpWYz6LX29twxFMZ6ux1Xmyj8wvf/at+5L2Tt9933/cqO8j0W6g6ii/ZFUtYDjRmcxQ/JzEaCyjF4COn4z94wwCBU7TdBaVYsl28FxiDaKxro494NYKaYqszbZJFsUTN35bEdK4NdT9Rz4k5D9Eo5pfeDqW1XTiwOs/WcOExGvelGpW7jrrwr33jlErKl0kEbq8GhySfynZDEFBG1LOUyPMydLiTHPDj2k1aTsP/WD1zV11jz1CzdQTh50HGbWdH7qpVoiDp/5mFw3yGKqSxPA6Ay+OxzPj3QDi/h21rAh+8rvv/K+/nSOs7Tpp9bL6gnC/UqUFGlN9cdApe8e01bIIAN1FrCEm0ZWtpMZlXoOiE78M39XDtfDolCivLTGNsxbZLlsHj8E5ELZ3b9Tr86nQ/DC8N1NMcQ9V8ugyFqHYLvEAy8C+O0HtsjehBubrwYIPG/pYe8fxTgkdyuZQFmkTD8LfLALkACr81nDwx2OQT3rHiZql3ydX8q6oco0RsNOC+rLw5HKSNTknxIMyS6K37b14Uvab3TDPKBkfchg9VJalulx2/m/nzb0ulvydTJYkBsngp6jgUHhFY3j/qTvJPxuWa15/WZ+onuvK9SbyAsxbKuiFKdrlrKAvO15BpEdfGh1AdXik/4tcGvv2wbdLRNyPMdRWirYLJOL8g3guVveG1fryqcocssIIY0RYZUxfM+tHLQaTU8VTc8A8FwD+rUgLcYo2gIwxqz/DV4E+UojfAGeNr2Yo8xz8lR7IPvFovfo9vtdoZC8KKU1sOAEPUWsHv6LltAG0iU2fW1WCiDpNczNUgmsRIngYqNJRRtbdAxAWI1gT1s158nF9BXAr6eME6WAr+kUU/Bly7Vxb6Hk8JWAWgKWjMXllJwh3WgD9ffDKU83jxKEUagUD4CG3ag3zSKbx3V2oTM749OoCyB77155rhlTWdhTks+g7wrNAcvAdpRslNoFS+f2n2qkVBOqoCfbDofCatpJute/ZuO/XbgqXdivhk/f5VMVyrQxUXixh/tdw1yMOlrSZKv1yu95HQfYy3x+1hmI98RwlfEiwQFHrPjtJIkq6kkeZRvU6y44F9VfaaucS7ZQYjvi4pNXtc7geNHzydzLHJj5iAheVe4vXPi1EQSJBmOdougzj/5+nN65eOIVK2UwVV4Rwqp2pCxZCj4CqUDf2FanzPaxhZ0RnXeZ9YF0bLijxjCUUuUXgHtVoOH8ykOPBF8tTE0obUOo738JJ+7cGhTK3pkC2wbPvMtCIbcF4AwIb/RTDfBY+UhCpAlf4glSie5bUDPUIJxXmGfnKzxvMYbfIz5xbNcbkDTeY2md4cFKI+hAJZG/4q/4zIm4ufltK4aEZs2ZqmA6Rq/xAE4ndgyztT0V0PXrQil3pxuZqB/7JzpcB+kNh/TPUD7rvnzqMiQp6Bw8xyqEuW01qvxKWoWooWS6oxY0Ebu++6FH8csWzsJK3CE/MEO9HulKSsGzIpC7KdIblv32fbd9gQna9RwgAYjyl6K8UwMhzTHwHYgDd5yT3f4GYBSsA5/tA3x949XnWj0sb9L+QvBKdd5+fdvwJtkKlQ5PqCkVnr34yf0R4+a0BnsIJcUmPerCb9snmQHYsCYQL8+KDCRILOT8YJYfdAJq19NoqRDUfjMQvD0abvYnRiZBrBb+aJkjJVzzAABsRWzT98L8au+OkplDkH8UoIYKrVg3Upv6yQINPJmKG/ahYVJrNO/LviweEjGzv7LcXW19uvgMklk9xFOYDB4xDIUtt5B+QXzYnFL16CLagA0URh6wmwEWHiNvKYwUBxVM3+hIXh+2+l9vSxQkp8FCmkQzA5+s4nRcCLIf6w3eJznY0rHeCg0PyM8HPBS/2miS1pV9kShri4RNe75QP7WUgQ8n7rLIvjabuuVDh/HZpPLC8VaBIReJiFQArdEMzyWjpWfgHY+wOeFiaJPUQRocifvtVksrG+zfijNp5jmjXyCXUqNKTMoD3nqTbxGAdWwhaXI92xPQlgyebsHDY3PSzYHLSB+Ptj94UlALDV9BVCFR5F5o8OMw0em+GVIdZn8ipDbG7imf0YppxJPKiVK+/nWhFImZIvI302GjM/z9ZD5sjkUaqukZzJakDEkEp2Hz9MkGWUK6+ogWPbM26OuwJvblPDJFtWHMpG0wAumllxFH5QDQQZlTDSjIS7uyTqHOD+nImA/XKUSt5whU7EQa/PrOSruOTP8enxbMrkBoxRLCPs/3/2oW2H/0dqb4Uia13I6K55ukROVFcWVNWjnoFtziFHg02APlQIB/ivo1wwgc4pBrFD8UEzTFrYYHhP8UOSlLu/BbpmVQPts9iF6bOAEEyhYFuAD5+S4boGXaqR3utYp1UmwepPtaWjymPaUIbaEMxNzyzprxKLe22dFyk7mXFs4kxzkE+8ZhjzJMThVcRBaXnnqA6+IBcrQed7gpV7pxIeV9SE+6m0r8BJC4jIE12e62qqgU31aiPowviepTFNJVzbcEtYY+hVFAtL9glbzFhncldLn1dNRpQbdy96UbCkLl+/A4gFKL/kvMN4ggXxbVHOyotUCmphvsNYblnTRdaM4gvleN4x6GECSnEMXyeWmcZgGetmZwwdpWNZXj5D+pU1Zg/YbD5Xr3UGG5Zt7E879YnyEBTGeHtSZq19L+N2jKqh/EA9yVl7k3j97Oc2OzH+RIUksrAhH8CcrUT4pQ5d0fFs7bwUgVjHc3xR1KDyv9m30bBOfknhvQxEXXv1rObgq+7k94Ld/bnXTncFHfj9yNfbfCBHJHjznq5bFsCid7TtlbIxPNvrB7zxKoCV6t0+gR3kEb+Xxdr5mt62Md7PCC6JM+xyF2W5k8Jy47crkh9A9ENo+BwkoXsmAHhHbw072xIDPfpUcoKivf5cBslVqep+bkZRHZD2lUpB7CqpG+6/8smU/6vAwvudv08FmUJBvhdbYMGd7aBTtv39zEYpP/pv/S+zR3mCxat023XhilgQBbeTgIE7HVKMuqQO6JqdYO3ELuHFri075xQeSFKxRoFo1n/qDhWER2WQlsIQ+npRM/4q+qc3UrQhNw7leXz8eZbKn1sNjP0zDn8EoPLz8vSxrj0ucjSlLa3lXhGL+X80Zz8q1UbgP2dLbfZlrfREiyQlxFaPdhy/pCHdT+zzP6J6yrBqvhaH7Kicw0q5SkV9MMPC4qoqxU3g5W9yG5Zt3tCt1gqcdbhdLT4pBH3/Sd+FGVDPaZCfxqn8072p4s2rLahDOPWNbfHFRpwWamBVa4eead3brih2xuHyyjrpFdy8z6u5mP0gqISETRfisjWvtI7XVki2zx4ZD2/pSw/Rhwbh8gnv2OBno9CCGlvyBDfxWkKQtSaE/oo7fCHBto